Version 4
SHEET 1 3864 3572
WIRE 2480 512 2384 512
WIRE 2640 512 2480 512
WIRE 2704 512 2640 512
WIRE 2480 528 2480 512
WIRE 1504 608 1344 608
WIRE 1696 608 1504 608
WIRE 1936 608 1696 608
WIRE 2048 608 1936 608
WIRE 2144 608 2048 608
WIRE 2224 608 2208 608
WIRE 2384 608 2384 576
WIRE 2384 608 2224 608
WIRE 1936 624 1936 608
WIRE 2640 624 2640 512
WIRE 1072 640 848 640
WIRE 1200 640 1136 640
WIRE 2480 640 2480 592
WIRE 2480 640 2304 640
WIRE 1344 656 1344 608
WIRE 848 672 848 640
WIRE 2048 672 2048 608
WIRE 2384 672 2384 608
WIRE 2480 672 2480 640
WIRE 1504 704 1504 608
WIRE 1936 752 1936 704
WIRE 2048 768 2048 736
WIRE 2064 768 2048 768
WIRE 2224 768 2224 608
WIRE 2224 768 2208 768
WIRE 848 784 848 752
WIRE 976 784 848 784
WIRE 1200 784 1200 720
WIRE 1200 784 976 784
WIRE 2384 784 2384 736
WIRE 2480 784 2480 736
WIRE 2480 784 2384 784
WIRE 2640 784 2640 688
WIRE 2640 784 2480 784
WIRE 2656 784 2640 784
WIRE 1696 800 1696 608
WIRE 1824 800 1696 800
WIRE 3152 800 3120 800
WIRE 976 832 976 784
WIRE 1344 880 1344 736
WIRE 1504 880 1504 784
WIRE 1504 880 1344 880
WIRE 1936 880 1936 832
WIRE 1936 880 1504 880
WIRE 2304 880 2304 640
WIRE 2304 880 1936 880
WIRE 1824 928 1824 800
WIRE 3152 928 3152 800
WIRE 1824 960 1824 928
WIRE 1872 992 1872 944
WIRE 1872 992 1856 992
WIRE 2048 992 2048 768
WIRE 2048 992 1872 992
WIRE 3152 1008 3120 1008
WIRE 1824 1104 1824 1024
WIRE 1824 1104 1696 1104
WIRE 1696 1168 1696 1104
WIRE 2480 1184 2384 1184
WIRE 2512 1184 2480 1184
WIRE 2624 1184 2592 1184
WIRE 2688 1184 2624 1184
WIRE 1808 1200 1728 1200
WIRE 1872 1200 1808 1200
WIRE 2048 1200 1952 1200
WIRE 2272 1200 2112 1200
WIRE 2480 1200 2480 1184
WIRE 1504 1280 1344 1280
WIRE 1632 1280 1504 1280
WIRE 1696 1280 1696 1232
WIRE 1696 1280 1632 1280
WIRE 1808 1280 1808 1264
WIRE 1808 1280 1696 1280
WIRE 2176 1280 1808 1280
WIRE 2272 1280 2272 1200
WIRE 2272 1280 2240 1280
WIRE 2384 1280 2384 1248
WIRE 2384 1280 2272 1280
WIRE 2624 1296 2624 1184
WIRE 2480 1312 2480 1264
WIRE 2480 1312 2304 1312
WIRE 1344 1328 1344 1280
WIRE 1632 1344 1632 1280
WIRE 2384 1344 2384 1280
WIRE 2480 1344 2480 1312
WIRE 1504 1392 1504 1280
WIRE 1584 1456 1584 1200
WIRE 1632 1456 1632 1424
WIRE 1632 1456 1584 1456
WIRE 2384 1456 2384 1408
WIRE 2480 1456 2480 1408
WIRE 2480 1456 2384 1456
WIRE 2624 1456 2624 1360
WIRE 2624 1456 2480 1456
WIRE 2640 1456 2624 1456
WIRE 1632 1472 1632 1456
WIRE 1344 1568 1344 1408
WIRE 1504 1568 1504 1472
WIRE 1504 1568 1344 1568
WIRE 1632 1568 1632 1552
WIRE 1632 1568 1504 1568
WIRE 2304 1568 2304 1312
WIRE 2304 1568 1632 1568
FLAG 976 832 0
FLAG 2656 784 VOUT-
FLAG 3120 800 VOUT+
FLAG 3120 1008 VOUT-
FLAG 2688 1184 VOUT+
FLAG 2640 1456 VOUT-
FLAG 2704 512 VOUT+
SYMBOL ind2 1184 624 R0
SYMATTR InstName Lp1
SYMATTR Value {Lp}
SYMATTR Type ind
SYMBOL cap 1136 624 R90
WINDOW 0 0 32 VBottom 2
WINDOW 3 32 32 VTop 2
SYMATTR InstName C3
SYMATTR Value {Cp}
SYMBOL ind2 1328 640 R0
SYMATTR InstName Ls1
SYMATTR Value {Ls}
SYMATTR Type ind
SYMBOL cap 2208 592 R90
WINDOW 0 -6 32 VBottom 2
WINDOW 3 32 32 VTop 2
SYMATTR InstName C4
SYMATTR Value {Cs}
SYMBOL diode 2496 736 R180
WINDOW 0 24 64 Left 2
WINDOW 3 24 0 Left 2
SYMATTR InstName D13
SYMBOL diode 2400 736 R180
WINDOW 0 24 64 Left 2
WINDOW 3 24 0 Left 2
SYMATTR InstName D14
SYMBOL diode 2496 592 R180
WINDOW 0 24 64 Left 2
WINDOW 3 24 0 Left 2
SYMATTR InstName D16
SYMBOL diode 2400 576 R180
WINDOW 0 24 64 Left 2
WINDOW 3 24 0 Left 2
SYMATTR InstName D15
SYMBOL cap 2624 624 R0
SYMATTR InstName C7
SYMATTR Value 10µ
SYMBOL res 3136 912 R0
SYMATTR InstName R6
SYMATTR Value 20
SYMBOL ind2 1328 1312 R0
SYMATTR InstName Ls2
SYMATTR Value {Ls}
SYMATTR Type ind
SYMBOL cap 2240 1264 R90
WINDOW 0 -6 32 VBottom 2
WINDOW 3 32 32 VTop 2
SYMATTR InstName C1
SYMATTR Value {Cs}
SYMBOL diode 2496 1408 R180
WINDOW 0 24 64 Left 2
WINDOW 3 24 0 Left 2
SYMATTR InstName D1
SYMBOL diode 2400 1408 R180
WINDOW 0 24 64 Left 2
WINDOW 3 24 0 Left 2
SYMATTR InstName D2
SYMBOL diode 2496 1264 R180
WINDOW 0 24 64 Left 2
WINDOW 3 24 0 Left 2
SYMATTR InstName D3
SYMBOL diode 2400 1248 R180
WINDOW 0 24 64 Left 2
WINDOW 3 24 0 Left 2
SYMATTR InstName D4
SYMBOL cap 2608 1296 R0
SYMATTR InstName C2
SYMATTR Value 10µ
SYMBOL res 2608 1168 R90
WINDOW 0 0 56 VBottom 2
WINDOW 3 32 56 VTop 2
SYMATTR InstName R2
SYMATTR Value 0.001
SYMBOL voltage 848 656 R0
WINDOW 123 0 0 Left 0
WINDOW 39 0 0 Left 0
SYMATTR InstName V2
SYMATTR Value SINE(0 20 {fop1})
SYMBOL res 1616 1328 R0
SYMATTR InstName R1
SYMATTR Value 5k
SYMBOL res 1616 1456 R0
SYMATTR InstName R3
SYMATTR Value 5k
SYMBOL res 1920 608 R0
SYMATTR InstName R4
SYMATTR Value 5k
SYMBOL res 1920 736 R0
SYMATTR InstName R5
SYMATTR Value 5k
SYMBOL AutoGenerated\\IGU04N60T_L1 1696 1200 R90
SYMATTR InstName U1
SYMBOL diode 2112 1184 R90
WINDOW 0 0 32 VBottom 2
WINDOW 3 32 32 VTop 2
SYMATTR InstName D5
SYMBOL diode 2144 784 R270
WINDOW 0 32 32 VTop 2
WINDOW 3 0 32 VBottom 2
SYMATTR InstName D6
SYMBOL res 1968 1184 R90
WINDOW 0 0 56 VBottom 2
WINDOW 3 32 56 VTop 2
SYMATTR InstName R7
SYMATTR Value 1k
SYMBOL cap 1792 1200 R0
SYMATTR InstName C5
SYMATTR Value 100n
SYMBOL cap 2032 672 R0
SYMATTR InstName C6
SYMATTR Value 100n
SYMBOL res 2160 752 R90
WINDOW 0 0 56 VBottom 2
WINDOW 3 32 56 VTop 2
SYMATTR InstName R8
SYMATTR Value 1k
SYMBOL pmos 1872 1024 R180
SYMATTR InstName M1
SYMATTR Value IRF9640
TEXT 200 1104 Left 2 !.tran 0 2m 0 1e-8
TEXT 208 1312 Left 2 !.param f=150k  \n.param Ls=66u\n \n.param Lp=82u\n.param Cp 1/(4*pi*pi*f*f*Lp)\n.param Cs 1/(4*pi*pi*f*f*Ls)
TEXT 192 1056 Left 2 !;ac lin 1000 100000 300000
TEXT 208 968 Left 2 !.param fop1=150k
TEXT 208 824 Left 2 !.options gmin=1e-10   \n.options abstol=1e-10  \n.options reltol=0.003  \n.options cshunt=1e-15
TEXT 912 1176 Left 2 !K1 Lp1 Ls1 0.2\nK2 Lp1 Ls2 0.18
